<?xml version="1.0" encoding="UTF-8"?>

<!-- generated on 2021-08-18 23:15:10 by Eclipse SUMO netedit Version 1.9.2
<configuration xmlns:xsi="http://www.w3.org/2001/XMLSchema-instance" xsi:noNamespaceSchemaLocation="http://sumo.dlr.de/xsd/netconvertConfiguration.xsd">

    <input>
        <sumo-net-file value="C:\Users\vislab\Sumo\NY\2021-07-28-18-14-03%20-%20trimed_origin%20-limited_test\osm.net.xml"/>
    </input>

    <output>
        <output-file value="C:\Users\vislab\Sumo\NY\2021-07-28-18-14-03%20-%20trimed_origin%20-limited_test\osm.net.xml"/>
        <output.street-names value="true"/>
    </output>

    <processing>
        <geometry.min-radius.fix.railways value="false"/>
        <geometry.max-grade.fix value="false"/>
        <offset.disable-normalization value="true"/>
        <lefthand value="false"/>
    </processing>

    <junctions>
        <no-turnarounds value="true"/>
        <junctions.corner-detail value="5"/>
        <junctions.limit-turn-speed value="5.5"/>
        <rectangular-lane-cut value="false"/>
    </junctions>

    <pedestrian>
        <walkingareas value="false"/>
    </pedestrian>

    <report>
        <aggregate-warnings value="5"/>
    </report>

</configuration>
-->

<net version="1.9" junctionCornerDetail="5" limitTurnSpeed="5.50" xmlns:xsi="http://www.w3.org/2001/XMLSchema-instance" xsi:noNamespaceSchemaLocation="http://sumo.dlr.de/xsd/net_file.xsd">

    <location netOffset="-588106.40,-4498775.59" convBoundary="603.66,1119.93,1086.64,2773.33" origBoundary="-73.957967,40.635033,-73.937893,40.660041" projParameter="+proj=utm +zone=18 +ellps=WGS84 +datum=WGS84 +units=m +no_defs"/>

    <type id="highway.bridleway" priority="1" numLanes="1" speed="2.78" allow="pedestrian" oneway="1" width="2.00"/>
    <type id="highway.bus_guideway" priority="1" numLanes="1" speed="27.78" allow="bus" oneway="1"/>
    <type id="highway.cycleway" priority="1" numLanes="1" speed="8.33" allow="bicycle" oneway="1" width="1.00"/>
    <type id="highway.footway" priority="1" numLanes="1" speed="2.78" allow="pedestrian" oneway="1" width="2.00"/>
    <type id="highway.ford" priority="1" numLanes="1" speed="2.78" allow="army" oneway="1"/>
    <type id="highway.living_street" priority="2" numLanes="1" speed="2.78" disallow="tram rail_urban rail rail_electric rail_fast ship" oneway="1"/>
    <type id="highway.motorway" priority="14" numLanes="2" speed="39.44" allow="private emergency authority army vip passenger hov taxi bus coach delivery truck trailer motorcycle evehicle custom1 custom2" oneway="1"/>
    <type id="highway.motorway_link" priority="9" numLanes="1" speed="22.22" allow="private emergency authority army vip passenger hov taxi bus coach delivery truck trailer motorcycle evehicle custom1 custom2" oneway="1"/>
    <type id="highway.path" priority="1" numLanes="1" speed="2.78" allow="pedestrian bicycle" oneway="1" width="2.00"/>
    <type id="highway.pedestrian" priority="1" numLanes="1" speed="2.78" allow="pedestrian" oneway="1" width="2.00"/>
    <type id="highway.primary" priority="12" numLanes="2" speed="27.78" disallow="tram rail_urban rail rail_electric rail_fast ship" oneway="1"/>
    <type id="highway.primary_link" priority="7" numLanes="1" speed="22.22" disallow="tram rail_urban rail rail_electric rail_fast ship" oneway="1"/>
    <type id="highway.raceway" priority="15" numLanes="2" speed="83.33" allow="vip" oneway="1"/>
    <type id="highway.residential" priority="3" numLanes="1" speed="13.89" disallow="tram rail_urban rail rail_electric rail_fast ship" oneway="1"/>
    <type id="highway.secondary" priority="11" numLanes="1" speed="27.78" disallow="tram rail_urban rail rail_electric rail_fast ship" oneway="1"/>
    <type id="highway.secondary_link" priority="6" numLanes="1" speed="22.22" disallow="tram rail_urban rail rail_electric rail_fast ship" oneway="1"/>
    <type id="highway.service" priority="1" numLanes="1" speed="5.56" allow="pedestrian delivery bicycle" oneway="1"/>
    <type id="highway.stairs" priority="1" numLanes="1" speed="1.39" allow="pedestrian" oneway="1" width="2.00"/>
    <type id="highway.step" priority="1" numLanes="1" speed="1.39" allow="pedestrian" oneway="1" width="2.00"/>
    <type id="highway.steps" priority="1" numLanes="1" speed="1.39" allow="pedestrian" oneway="1" width="2.00"/>
    <type id="highway.tertiary" priority="10" numLanes="1" speed="22.22" disallow="tram rail_urban rail rail_electric rail_fast ship" oneway="1"/>
    <type id="highway.tertiary_link" priority="5" numLanes="1" speed="22.22" disallow="tram rail_urban rail rail_electric rail_fast ship" oneway="1"/>
    <type id="highway.track" priority="1" numLanes="1" speed="5.56" allow="pedestrian motorcycle moped bicycle" oneway="1"/>
    <type id="highway.trunk" priority="13" numLanes="2" speed="27.78" disallow="pedestrian bicycle tram rail_urban rail rail_electric rail_fast ship" oneway="1"/>
    <type id="highway.trunk_link" priority="8" numLanes="1" speed="22.22" disallow="pedestrian bicycle tram rail_urban rail rail_electric rail_fast ship" oneway="1"/>
    <type id="highway.unclassified" priority="4" numLanes="1" speed="13.89" disallow="tram rail_urban rail rail_electric rail_fast ship" oneway="1"/>
    <type id="highway.unsurfaced" priority="1" numLanes="1" speed="8.33" disallow="tram rail_urban rail rail_electric rail_fast ship" oneway="1"/>
    <type id="railway.highspeed" priority="21" numLanes="1" speed="69.44" allow="rail_fast" oneway="1"/>
    <type id="railway.light_rail" priority="19" numLanes="1" speed="27.78" allow="rail_urban" oneway="1"/>
    <type id="railway.preserved" priority="16" numLanes="1" speed="27.78" allow="rail" oneway="1"/>
    <type id="railway.rail" priority="20" numLanes="1" speed="44.44" allow="rail" oneway="1"/>
    <type id="railway.subway" priority="18" numLanes="1" speed="27.78" allow="rail_urban" oneway="1"/>
    <type id="railway.tram" priority="17" numLanes="1" speed="13.89" allow="tram" oneway="1"/>

    <edge id=":42464444_0" function="internal">
        <lane id=":42464444_0_0" index="0" disallow="all" speed="5.04" length="5.00" shape="878.93,1553.47 880.29,1553.40 881.31,1552.91 881.98,1552.00 882.30,1550.67"/>
    </edge>
    <edge id=":42464444_1" function="internal">
        <lane id=":42464444_1_0" index="0" disallow="all" speed="13.89" length="6.20" shape="878.93,1553.47 885.10,1554.05"/>
    </edge>
    <edge id=":42464444_2" function="internal">
        <lane id=":42464444_2_0" index="0" disallow="all" speed="3.65" length="4.67" shape="878.93,1553.47 880.05,1554.38 880.37,1555.21 879.90,1555.97 878.63,1556.66"/>
    </edge>
    <edge id=":42464445_0" function="internal">
        <lane id=":42464445_0_0" index="0" speed="6.18" length="7.88" shape="903.29,1329.76 903.75,1327.01 904.52,1325.07 905.61,1323.95 907.02,1323.65"/>
    </edge>
    <edge id=":42464452_0" function="internal">
        <lane id=":42464452_0_0" index="0" disallow="all" speed="13.89" length="6.20" shape="924.34,1136.87 918.17,1136.29"/>
    </edge>
    <edge id=":42464452_1" function="internal">
        <lane id=":42464452_1_0" index="0" disallow="all" speed="13.89" length="6.20" shape="918.47,1133.11 924.64,1133.69"/>
    </edge>
    <edge id=":42464452_2" function="internal">
        <lane id=":42464452_2_0" index="0" disallow="all" speed="3.65" length="2.34" shape="918.47,1133.11 919.59,1134.02 919.91,1134.85"/>
    </edge>
    <edge id=":42464452_5" function="internal">
        <lane id=":42464452_5_0" index="0" disallow="all" speed="3.65" length="2.34" shape="919.91,1134.85 919.44,1135.61 918.17,1136.29"/>
    </edge>
    <edge id=":42464452_3" function="internal">
        <lane id=":42464452_3_0" index="0" disallow="all" speed="5.04" length="5.00" shape="920.97,1139.67 920.90,1138.30 920.41,1137.28 919.50,1136.61 918.17,1136.29"/>
    </edge>
    <edge id=":42464452_4" function="internal">
        <lane id=":42464452_4_0" index="0" disallow="all" speed="6.08" length="7.76" shape="920.97,1139.67 921.42,1136.94 922.18,1135.04 923.26,1133.95 924.64,1133.69"/>
    </edge>
    <edge id=":42478813_0" function="internal">
        <lane id=":42478813_0_0" index="0" disallow="all" speed="11.18" length="0.10" shape="729.36,1453.62 729.36,1453.62"/>
    </edge>
    <edge id=":42481713_0" function="internal">
        <lane id=":42481713_0_0" index="0" disallow="all" speed="6.08" length="7.75" shape="724.27,1542.24 722.95,1541.72 722.10,1540.46 721.70,1538.44 721.76,1535.68"/>
    </edge>
    <edge id=":42481713_1" function="internal">
        <lane id=":42481713_1_0" index="0" disallow="all" speed="3.65" length="4.67" shape="724.27,1542.24 723.15,1541.33 722.82,1540.50 723.29,1539.74 724.56,1539.05"/>
    </edge>
    <edge id=":42481716_0" function="internal">
        <lane id=":42481716_0_0" index="0" disallow="all" speed="6.05" length="7.83" shape="745.35,1316.25 743.97,1315.76 743.08,1314.51 742.66,1312.49 742.71,1309.72"/>
    </edge>
    <edge id=":42481716_1" function="internal">
        <lane id=":42481716_1_0" index="0" disallow="all" speed="11.18" length="9.40" shape="741.84,1319.08 742.71,1309.72"/>
    </edge>
    <edge id=":42481716_2" function="internal">
        <lane id=":42481716_2_0" index="0" disallow="all" speed="6.15" length="7.80" shape="741.84,1319.08 742.29,1316.36 743.06,1314.46 744.15,1313.35 745.56,1313.05"/>
    </edge>
    <edge id=":42481722_0" function="internal">
        <lane id=":42481722_0_0" index="0" disallow="all" speed="3.65" length="1.14" shape="763.42,1121.81 762.53,1121.09"/>
    </edge>
    <edge id=":42481722_2" function="internal">
        <lane id=":42481722_2_0" index="0" disallow="all" speed="3.65" length="3.53" shape="762.53,1121.09 762.30,1120.90 761.97,1120.07 762.45,1119.31 763.72,1118.63"/>
    </edge>
    <edge id=":42481722_1" function="internal">
        <lane id=":42481722_1_0" index="0" disallow="all" speed="6.08" length="7.76" shape="760.04,1124.61 760.49,1121.88 761.25,1119.98 762.33,1118.89 763.72,1118.63"/>
    </edge>
    <edge id=":42483733_0" function="internal">
        <lane id=":42483733_0_0" index="0" disallow="all" speed="3.65" length="4.67" shape="805.91,1549.86 804.79,1548.95 804.47,1548.12 804.94,1547.36 806.21,1546.68"/>
    </edge>
    <edge id=":42483733_1" function="internal">
        <lane id=":42483733_1_0" index="0" disallow="all" speed="3.65" length="4.67" shape="800.04,1546.10 801.16,1547.01 801.48,1547.84 801.01,1548.60 799.74,1549.29"/>
    </edge>
    <edge id=":42483736_0" function="internal">
        <lane id=":42483736_0_0" index="0" disallow="all" speed="5.17" length="5.19" shape="827.73,1321.67 826.30,1321.78 825.23,1322.30 824.53,1323.24 824.20,1324.60"/>
    </edge>
    <edge id=":42483740_0" function="internal">
        <lane id=":42483740_0_0" index="0" disallow="all" speed="5.04" length="5.00" shape="845.45,1129.49 844.08,1129.55 843.06,1130.05 842.39,1130.96 842.08,1132.29"/>
    </edge>
    <edge id=":42483740_1" function="internal">
        <lane id=":42483740_1_0" index="0" disallow="all" speed="13.89" length="6.20" shape="845.45,1129.49 839.28,1128.91"/>
    </edge>
    <edge id=":42483740_2" function="internal">
        <lane id=":42483740_2_0" index="0" disallow="all" speed="3.65" length="2.34" shape="845.45,1129.49 844.33,1128.58 844.00,1127.75"/>
    </edge>
    <edge id=":42483740_6" function="internal">
        <lane id=":42483740_6_0" index="0" disallow="all" speed="3.65" length="2.34" shape="844.00,1127.75 844.47,1126.99 845.74,1126.30"/>
    </edge>
    <edge id=":42483740_3" function="internal">
        <lane id=":42483740_3_0" index="0" disallow="all" speed="13.89" length="6.19" shape="839.58,1125.73 845.74,1126.30"/>
    </edge>
    <edge id=":42483740_4" function="internal">
        <lane id=":42483740_4_0" index="0" disallow="all" speed="6.08" length="2.94" shape="839.58,1125.73 840.89,1126.25 841.74,1127.51"/>
    </edge>
    <edge id=":42483740_5" function="internal">
        <lane id=":42483740_5_0" index="0" disallow="all" speed="3.65" length="2.34" shape="839.58,1125.73 840.70,1126.64 841.02,1127.47"/>
    </edge>
    <edge id=":42483740_7" function="internal">
        <lane id=":42483740_7_0" index="0" disallow="all" speed="6.08" length="4.82" shape="841.74,1127.51 842.14,1129.53 842.08,1132.29"/>
    </edge>
    <edge id=":42483740_8" function="internal">
        <lane id=":42483740_8_0" index="0" disallow="all" speed="3.65" length="2.34" shape="841.02,1127.47 840.55,1128.23 839.28,1128.91"/>
    </edge>
    <edge id=":42496574_0" function="internal">
        <lane id=":42496574_0_0" index="0" speed="6.86" length="10.17" shape="967.33,1558.61 966.69,1561.32 965.33,1563.17 963.26,1564.17 960.48,1564.31"/>
    </edge>
    <edge id=":42496577_0" function="internal">
        <lane id=":42496577_0_0" index="0" disallow="tram rail_urban rail rail_electric rail_fast ship" speed="6.55" length="9.00" shape="993.54,1332.76 991.12,1332.95 989.32,1333.88 988.13,1335.56 987.57,1337.99"/>
    </edge>
    <edge id=":42496577_1" function="internal">
        <lane id=":42496577_1_0" index="0" disallow="all" speed="5.98" length="7.30" shape="979.57,1328.60 982.05,1328.57 983.86,1328.09 985.01,1327.15 985.50,1325.77"/>
    </edge>
    <edge id=":42496577_2" function="internal">
        <lane id=":42496577_2_0" index="0" disallow="tram rail_urban rail rail_electric rail_fast ship" speed="13.89" length="14.21" shape="979.57,1328.60 993.75,1329.57"/>
    </edge>
    <edge id=":42496581_0" function="internal">
        <lane id=":42496581_0_0" index="0" disallow="all" speed="6.86" length="10.15" shape="1002.65,1147.36 1003.30,1144.66 1004.67,1142.81 1006.74,1141.82 1009.51,1141.69"/>
    </edge>
    <edge id=":42500506_0" function="internal">
        <lane id=":42500506_0_0" index="0" disallow="all" speed="5.04" length="5.00" shape="1044.38,1568.93 1045.75,1568.86 1046.77,1568.37 1047.43,1567.46 1047.75,1566.13"/>
    </edge>
    <edge id=":42500506_1" function="internal">
        <lane id=":42500506_1_0" index="0" disallow="all" speed="3.65" length="4.67" shape="1044.38,1568.93 1045.50,1569.84 1045.82,1570.67 1045.35,1571.43 1044.08,1572.11"/>
    </edge>

    <edge id="-221688408#8" from="42496577" to="42496581" name="New York Avenue" priority="3" type="highway.residential" shape="986.63,1330.69 1003.76,1152.55 1004.69,1142.84">
        <lane id="-221688408#8_0" index="0" disallow="all" speed="13.89" length="179.23" shape="985.50,1325.77 1002.17,1152.40 1002.65,1147.36">
            <param key="origId" value="221688408"/>
        </lane>
    </edge>
    <edge id="-221688408#9" from="42496574" to="42496577" name="New York Avenue" priority="3" type="highway.residential">
        <lane id="-221688408#9_0" index="0" disallow="all" speed="13.89" length="221.55" shape="964.15,1558.32 984.38,1337.69">
            <param key="origId" value="221688408"/>
        </lane>
    </edge>
    <edge id="-274886544" from="42481716" to="42483736" name="Tilden Avenue" priority="3" type="highway.residential">
        <lane id="-274886544_0" index="0" disallow="all" speed="13.89" length="76.18" shape="745.56,1313.05 821.57,1318.06">
            <param key="origId" value="274886544"/>
        </lane>
    </edge>
    <edge id="-274886545#0" from="cluster_42500509_7360407234_7360407237_7360407240_7360407243" to="42496577" name="Tilden Avenue" priority="3" type="highway.residential" shape="1061.74,1335.77 986.63,1330.69">
        <lane id="-274886545#0_0" index="0" disallow="tram rail_urban rail rail_electric rail_fast ship" speed="13.89" length="68.25" shape="1061.63,1337.37 993.54,1332.76">
            <param key="origId" value="274886545"/>
        </lane>
        <param key="origFrom" value="7360407240"/>
    </edge>
    <edge id="-274886548#0" from="42464445" to="42483736" name="Tilden Avenue" priority="3" type="highway.residential">
        <lane id="-274886548#0_0" index="0" disallow="all" speed="13.89" length="72.87" shape="900.45,1326.42 827.73,1321.67">
            <param key="origId" value="274886548"/>
        </lane>
    </edge>
    <edge id="-274886548#1" from="42496577" to="42464445" name="Tilden Avenue" priority="3" type="highway.residential">
        <lane id="-274886548#1_0" index="0" disallow="all" speed="13.89" length="72.72" shape="979.36,1331.80 906.80,1326.84">
            <param key="origId" value="274886548"/>
        </lane>
    </edge>
    <edge id="-275390415#4" from="42496574" to="42500506" name="Snyder Avenue" priority="3" type="highway.residential">
        <lane id="-275390415#4_0" index="0" disallow="all" speed="13.89" length="74.57" shape="970.13,1561.99 1044.38,1568.93">
            <param key="origId" value="275390415"/>
        </lane>
    </edge>
    <edge id="-275390415#5" from="42464444" to="42496574" name="Snyder Avenue" priority="3" type="highway.residential">
        <lane id="-275390415#5_0" index="0" disallow="all" speed="13.89" length="76.00" shape="885.10,1554.05 960.77,1561.12">
            <param key="origId" value="275390415"/>
        </lane>
    </edge>
    <edge id="-275390415#6" from="42483733" to="42464444" name="Snyder Avenue" priority="3" type="highway.residential">
        <lane id="-275390415#6_0" index="0" disallow="all" speed="13.89" length="73.03" shape="806.21,1546.68 878.93,1553.47">
            <param key="origId" value="275390415"/>
        </lane>
    </edge>
    <edge id="-275390415#7" from="42481713" to="42483733" name="Snyder Avenue" priority="3" type="highway.residential">
        <lane id="-275390415#7_0" index="0" disallow="all" speed="13.89" length="75.80" shape="724.56,1539.05 800.04,1546.10">
            <param key="origId" value="275390415"/>
        </lane>
    </edge>
    <edge id="-5680831#10" from="42464452" to="42483740" name="Beverley Road" priority="3" type="highway.residential" shape="921.41,1134.99 849.28,1128.23 842.51,1127.61">
        <lane id="-5680831#10_0" index="0" disallow="all" speed="13.89" length="73.04" shape="918.17,1136.29 849.13,1129.82 845.45,1129.49">
            <param key="origId" value="5680831"/>
        </lane>
    </edge>
    <edge id="-5680831#12" from="42496581" to="42464452" name="Beverley Road" priority="3" type="highway.residential" shape="1004.69,1142.84 995.88,1141.95 921.41,1134.99">
        <lane id="-5680831#12_0" index="0" disallow="all" speed="13.89" length="75.86" shape="999.87,1143.96 995.73,1143.54 924.34,1136.87">
            <param key="origId" value="5680831"/>
        </lane>
    </edge>
    <edge id="-5680831#14" from="cluster_42500511_8046970668" to="42496581" name="Beverley Road" priority="3" type="highway.residential" shape="1086.64,1150.49 1012.98,1143.62 1004.69,1142.84">
        <lane id="-5680831#14_0" index="0" disallow="all" speed="13.89" length="74.39" shape="1083.29,1151.78 1012.83,1145.21 1009.21,1144.87">
            <param key="origId" value="5680831"/>
        </lane>
        <param key="origFrom" value="42500511"/>
    </edge>
    <edge id="-5680831#8" from="42483740" to="42481722" name="Beverley Road" priority="3" type="highway.residential" shape="842.51,1127.61 834.76,1126.88 769.73,1120.80 760.48,1119.93">
        <lane id="-5680831#8_0" index="0" disallow="all" speed="13.89" length="76.19" shape="839.28,1128.91 834.61,1128.47 769.58,1122.39 763.42,1121.81">
            <param key="origId" value="5680831"/>
        </lane>
    </edge>
    <edge id="221688408#7" from="42496581" to="42496577" name="New York Avenue" priority="3" type="highway.residential" shape="1004.69,1142.84 1003.76,1152.55 986.63,1330.69">
        <lane id="221688408#7_0" index="0" disallow="all" speed="13.89" length="179.23" shape="1005.84,1147.67 1005.35,1152.70 988.68,1326.07">
            <param key="origId" value="221688408"/>
        </lane>
    </edge>
    <edge id="221688408#9" from="42496577" to="42496574" name="New York Avenue" priority="3" type="highway.residential">
        <lane id="221688408#9_0" index="0" speed="13.89" length="221.55" shape="987.57,1337.99 967.33,1558.61">
            <param key="origId" value="221688408"/>
        </lane>
    </edge>
    <edge id="221698685#2" from="42481713" to="42478813" name="Nostrand Avenue" priority="11" type="highway.secondary" spreadType="center">
        <lane id="221698685#2_0" index="0" disallow="all" speed="11.18" length="82.41" shape="721.76,1535.68 729.36,1453.62">
            <param key="origId" value="221698685"/>
        </lane>
    </edge>
    <edge id="221698685#3" from="42478813" to="42481716" name="Nostrand Avenue" priority="11" type="highway.secondary" spreadType="center">
        <lane id="221698685#3_0" index="0" disallow="all" speed="11.18" length="135.12" shape="729.36,1453.62 741.84,1319.08">
            <param key="origId" value="221698685"/>
        </lane>
    </edge>
    <edge id="221698685#4" from="42481716" to="42481722" name="Nostrand Avenue" priority="11" type="highway.secondary" spreadType="center" shape="742.27,1314.44 759.44,1131.01 760.48,1119.93">
        <lane id="221698685#4_0" index="0" disallow="all" speed="11.18" length="185.92" shape="742.71,1309.72 759.44,1131.01 760.04,1124.61">
            <param key="origId" value="221698685"/>
        </lane>
    </edge>
    <edge id="274886544" from="42483736" to="42481716" name="Tilden Avenue" priority="3" type="highway.residential">
        <lane id="274886544_0" index="0" disallow="all" speed="13.89" length="76.18" shape="821.36,1321.26 745.35,1316.25">
            <param key="origId" value="274886544"/>
        </lane>
    </edge>
    <edge id="274886545#0" from="42496577" to="cluster_42500509_7360407234_7360407237_7360407240_7360407243" name="Tilden Avenue" priority="3" type="highway.residential" shape="986.63,1330.69 1061.74,1335.77">
        <lane id="274886545#0_0" index="0" disallow="tram rail_urban rail rail_electric rail_fast ship" speed="13.89" length="68.25" shape="993.75,1329.57 1061.85,1334.17">
            <param key="origId" value="274886545"/>
        </lane>
        <param key="origTo" value="7360407240"/>
    </edge>
    <edge id="274886548#0" from="42483736" to="42464445" name="Tilden Avenue" priority="3" type="highway.residential">
        <lane id="274886548#0_0" index="0" disallow="all" speed="13.89" length="72.87" shape="827.94,1318.48 900.65,1323.23">
            <param key="origId" value="274886548"/>
        </lane>
    </edge>
    <edge id="274886548#1" from="42464445" to="42496577" name="Tilden Avenue" priority="3" type="highway.residential">
        <lane id="274886548#1_0" index="0" speed="13.89" length="72.72" shape="907.02,1323.65 979.57,1328.60">
            <param key="origId" value="274886548"/>
        </lane>
    </edge>
    <edge id="274894285" from="42483736" to="42483733" name="East 31st Street" priority="3" type="highway.residential" spreadType="center" shape="824.65,1319.87 804.22,1534.81 802.97,1547.98">
        <lane id="274894285_0" index="0" disallow="all" speed="13.89" length="219.69" shape="824.20,1324.60 804.22,1534.81 803.41,1543.30">
            <param key="origId" value="274894285"/>
        </lane>
    </edge>
    <edge id="274894287#0" from="42483740" to="42483736" name="East 31st Street" priority="3" type="highway.residential" spreadType="center" shape="842.51,1127.61 841.66,1136.79 825.90,1306.43 824.65,1319.87">
        <lane id="274894287#0_0" index="0" disallow="all" speed="13.89" length="183.64" shape="842.08,1132.29 841.66,1136.79 825.90,1306.43 825.09,1315.15">
            <param key="origId" value="274894287"/>
        </lane>
    </edge>
    <edge id="275390415#4" from="42500506" to="42496574" name="Snyder Avenue" priority="3" type="highway.residential">
        <lane id="275390415#4_0" index="0" disallow="all" speed="13.89" length="74.57" shape="1044.08,1572.11 969.84,1565.18">
            <param key="origId" value="275390415"/>
        </lane>
    </edge>
    <edge id="275390415#5" from="42496574" to="42464444" name="Snyder Avenue" priority="3" type="highway.residential">
        <lane id="275390415#5_0" index="0" speed="13.89" length="76.00" shape="960.48,1564.31 884.80,1557.23">
            <param key="origId" value="275390415"/>
        </lane>
    </edge>
    <edge id="275390415#6" from="42464444" to="42483733" name="Snyder Avenue" priority="3" type="highway.residential">
        <lane id="275390415#6_0" index="0" disallow="all" speed="13.89" length="73.03" shape="878.63,1556.66 805.91,1549.86">
            <param key="origId" value="275390415"/>
        </lane>
    </edge>
    <edge id="275390415#7" from="42483733" to="42481713" name="Snyder Avenue" priority="3" type="highway.residential">
        <lane id="275390415#7_0" index="0" disallow="all" speed="13.89" length="75.80" shape="799.74,1549.29 724.27,1542.24">
            <param key="origId" value="275390415"/>
        </lane>
    </edge>
    <edge id="276074125" from="42464445" to="42464452" name="East 32nd Street" priority="3" type="highway.residential" spreadType="center" shape="903.74,1325.03 920.26,1147.25 920.49,1144.70 921.41,1134.99">
        <lane id="276074125_0" index="0" disallow="all" speed="13.89" length="181.42" shape="904.18,1320.31 920.26,1147.25 920.49,1144.70 920.97,1139.67">
            <param key="origId" value="276074125"/>
        </lane>
    </edge>
    <edge id="276074127" from="42464444" to="42464445" name="East 32nd Street" priority="3" type="highway.residential" spreadType="center" shape="881.86,1555.35 902.73,1335.61 903.74,1325.03">
        <lane id="276074127_0" index="0" speed="13.89" length="221.91" shape="882.30,1550.67 902.73,1335.61 903.29,1329.76">
            <param key="origId" value="276074127"/>
        </lane>
    </edge>
    <edge id="5678579#3" from="42500506" to="cluster_42500509_7360407234_7360407237_7360407240_7360407243" name="East 34th Street" priority="3" type="highway.residential" spreadType="center" shape="1047.32,1570.81 1067.78,1349.34 1068.22,1344.68">
        <lane id="5678579#3_0" index="0" disallow="all" speed="13.89" length="222.39" shape="1047.75,1566.13 1067.78,1349.34 1068.22,1344.68">
            <param key="origId" value="5678579"/>
        </lane>
        <param key="origTo" value="7360407237"/>
    </edge>
    <edge id="5678579#6" from="cluster_42500509_7360407234_7360407237_7360407240_7360407243" to="cluster_42500511_8046970668" name="East 34th Street" priority="3" type="highway.residential" spreadType="center" shape="1069.81,1327.81 1085.30,1164.50 1085.74,1159.34">
        <lane id="5678579#6_0" index="0" disallow="all" speed="13.89" length="169.22" shape="1069.81,1327.81 1085.30,1164.50 1085.74,1159.34">
            <param key="origId" value="5678579"/>
        </lane>
        <param key="origFrom" value="7360407243"/>
        <param key="origTo" value="8046970668"/>
    </edge>
    <edge id="5680831#11" from="42464452" to="42496581" name="Beverley Road" priority="3" type="highway.residential" shape="921.41,1134.99 995.88,1141.95 1004.69,1142.84">
        <lane id="5680831#11_0" index="0" disallow="all" speed="13.89" length="75.88" shape="924.64,1133.69 996.03,1140.36 1000.19,1140.78">
            <param key="origId" value="5680831"/>
        </lane>
    </edge>
    <edge id="5680831#13" from="42496581" to="cluster_42500511_8046970668" name="Beverley Road" priority="3" type="highway.residential" shape="1004.69,1142.84 1012.98,1143.62 1086.64,1150.49">
        <lane id="5680831#13_0" index="0" disallow="all" speed="13.89" length="74.39" shape="1009.51,1141.69 1013.13,1142.03 1083.58,1148.60">
            <param key="origId" value="5680831"/>
        </lane>
        <param key="origTo" value="42500511"/>
    </edge>
    <edge id="5680831#6" from="42481722" to="42483740" name="Beverley Road" priority="3" type="highway.residential" shape="760.48,1119.93 769.73,1120.80 834.76,1126.88 842.51,1127.61">
        <lane id="5680831#6_0" index="0" disallow="all" speed="13.89" length="76.19" shape="763.72,1118.63 769.88,1119.21 834.91,1125.29 839.58,1125.73">
            <param key="origId" value="5680831"/>
        </lane>
    </edge>
    <edge id="5680831#9" from="42483740" to="42464452" name="Beverley Road" priority="3" type="highway.residential" shape="842.51,1127.61 849.28,1128.23 921.41,1134.99">
        <lane id="5680831#9_0" index="0" disallow="all" speed="13.89" length="73.05" shape="845.74,1126.30 849.43,1126.64 918.47,1133.11">
            <param key="origId" value="5680831"/>
        </lane>
    </edge>

    <tlLogic id="42478813" type="actuated" programID="0" offset="0">
        <phase duration="82" state="G" minDur="5" maxDur="50"/>
        <phase duration="3"  state="y"/>
        <phase duration="5"  state="r"/>
    </tlLogic>
    <tlLogic id="42481713" type="actuated" programID="0" offset="0">
        <phase duration="82" state="GG" minDur="5" maxDur="50"/>
        <phase duration="3"  state="yy"/>
        <phase duration="5"  state="rr"/>
    </tlLogic>
    <tlLogic id="42481716" type="actuated" programID="0" offset="0">
        <phase duration="42" state="GGrr" minDur="5" maxDur="50"/>
        <phase duration="3"  state="yyrr"/>
        <phase duration="42" state="rrGG" minDur="5" maxDur="50"/>
        <phase duration="3"  state="rryy"/>
    </tlLogic>
    <tlLogic id="42481722" type="actuated" programID="0" offset="0">
        <phase duration="42" state="gG" minDur="5" maxDur="50"/>
        <phase duration="3"  state="yy"/>
        <phase duration="42" state="rG" minDur="5" maxDur="50"/>
        <phase duration="3"  state="ry"/>
    </tlLogic>
    <tlLogic id="42500506" type="actuated" programID="0" offset="0">
        <phase duration="82" state="GG" minDur="5" maxDur="50"/>
        <phase duration="3"  state="yy"/>
        <phase duration="5"  state="rr"/>
    </tlLogic>
    <tlLogic id="GS_42483740" type="actuated" programID="0" offset="0">
        <phase duration="82" state="GGgGgg" minDur="5" maxDur="50"/>
        <phase duration="3"  state="yyyyyy"/>
        <phase duration="5"  state="rrrrrr"/>
    </tlLogic>
