<?xml version="1.0" encoding="UTF-8"?>

<!-- generated on 2021-08-18 17:39:35 by Eclipse SUMO duarouter Version 1.9.2
<configuration xmlns:xsi="http://www.w3.org/2001/XMLSchema-instance" xsi:noNamespaceSchemaLocation="http://sumo.dlr.de/xsd/duarouterConfiguration.xsd">

    <input>
        <net-file value="osm.net.xml"/>
        <route-files value="osm.passenger.trips.xml"/>
    </input>

    <output>
        <output-file value="osm.rou.xml"/>
        <alternatives-output value="osm.rou.alt.xml"/>
    </output>

    <time>
        <begin value="0"/>
        <end value="3600"/>
    </time>

    <report>
        <no-warnings value="true"/>
        <ignore-errors value="true"/>
        <no-step-log value="true"/>
    </report>

</configuration>
-->

<routes xmlns:xsi="http://www.w3.org/2001/XMLSchema-instance" xsi:noNamespaceSchemaLocation="http://sumo.dlr.de/xsd/routes_file.xsd">
    <vehicle id="0" depart="0.00">
        <route edges="274886548#1 -221688408#8"/>
    </vehicle>
    <vehicle id="5" depart="5.00">
        <route edges="-274886545#0 -274886548#1 -274886548#0 274894285"/>
    </vehicle>
    <vehicle id="9" depart="9.00">
        <route edges="276074127 274886548#1 -221688408#8"/>
    </vehicle>
    <vehicle id="10" depart="10.00">
        <route edges="276074127 274886548#1 -221688408#8 5680831#13"/>
    </vehicle>
    <vehicle id="11" depart="11.00">
        <route edges="-274886548#1 -274886548#0"/>
    </vehicle>
    <vehicle id="14" depart="14.00">
        <route edges="276074127"/>
    </vehicle>
    <vehicle id="15" depart="15.00">
        <route edges="276074127 -274886548#0 274894285 gneE0"/>
    </vehicle>
    <vehicle id="16" depart="16.00">
        <route edges="274886545#0 gneE2"/>
    </vehicle>
    <vehicle id="18" depart="18.00">
        <route edges="276074127"/>
    </vehicle>
    <vehicle id="19" depart="19.00">
        <route edges="276074127"/>
    </vehicle>
    <vehicle id="24" depart="24.00">
        <route edges="274886548#1"/>
    </vehicle>
    <vehicle id="25" depart="25.00">
        <route edges="-274886548#1"/>
    </vehicle>
    <vehicle id="28" depart="28.00">
        <route edges="-274886545#0 -274886548#1 -274886548#0 274894285 gneE0"/>
    </vehicle>
    <vehicle id="30" depart="30.00">
        <route edges="5680831#13"/>
    </vehicle>
    <vehicle id="31" depart="31.00">
        <route edges="274886548#1 -221688408#8 5680831#13"/>
    </vehicle>
    <vehicle id="32" depart="32.00">
        <route edges="276074127 -274886548#0 274894285 gneE0"/>
    </vehicle>
    <vehicle id="36" depart="36.00">
        <route edges="276074127 274886548#1 274886545#0"/>
    </vehicle>
    <vehicle id="37" depart="37.00">
        <route edges="274886548#1"/>
    </vehicle>
    <vehicle id="41" depart="41.00">
        <route edges="274886548#1 -221688408#8 5680831#13 gneE1"/>
    </vehicle>
    <vehicle id="42" depart="42.00">
        <route edges="-274886548#1"/>
    </vehicle>
    <vehicle id="44" depart="44.00">
        <route edges="-221688408#8"/>
    </vehicle>
    <vehicle id="46" depart="46.00">
        <route edges="276074127 274886548#1"/>
    </vehicle>
    <vehicle id="49" depart="49.00">
        <route edges="5680831#13 gneE1"/>
    </vehicle>
    <vehicle id="50" depart="50.00">
        <route edges="-221688408#8 5680831#13"/>
    </vehicle>
    <vehicle id="51" depart="51.00">
        <route edges="274894285"/>
    </vehicle>
    <vehicle id="54" depart="54.00">
        <route edges="274886545#0 gneE2"/>
    </vehicle>
    <vehicle id="57" depart="57.00">
        <route edges="5680831#13 gneE1"/>
    </vehicle>
    <vehicle id="60" depart="60.00">
        <route edges="274894285"/>
    </vehicle>
    <vehicle id="61" depart="61.00">
        <route edges="276074127 -274886548#0 274894285"/>
    </vehicle>
    <vehicle id="64" depart="64.00">
        <route edges="276074127 274886548#1 -221688408#8 5680831#13 gneE1"/>
    </vehicle>
    <vehicle id="66" depart="66.00">
        <route edges="276074127 274886548#1 274886545#0 gneE2"/>
    </vehicle>
    <vehicle id="72" depart="72.00">
        <route edges="-274886548#1"/>
    </vehicle>
    <vehicle id="75" depart="75.00">
        <route edges="5680831#13"/>
    </vehicle>
    <vehicle id="76" depart="76.00">
        <route edges="-274886548#1 -274886548#0 274894285"/>
    </vehicle>
    <vehicle id="77" depart="77.00">
        <route edges="-274886545#0 -274886548#1"/>
    </vehicle>
    <vehicle id="82" depart="82.00">
        <route edges="276074127 274886548#1 -221688408#8"/>
    </vehicle>
    <vehicle id="84" depart="84.00">
        <route edges="-274886545#0 -274886548#1 -274886548#0"/>
    </vehicle>
    <vehicle id="89" depart="89.00">
        <route edges="-274886548#1 -274886548#0 274894285"/>
    </vehicle>
    <vehicle id="99" depart="99.00">
        <route edges="5680831#13 gneE1"/>
    </vehicle>
    <vehicle id="101" depart="101.00">
        <route edges="276074127 -274886548#0"/>
    </vehicle>
    <vehicle id="105" depart="105.00">
        <route edges="-274886548#0 274894285 gneE0"/>
    </vehicle>
    <vehicle id="108" depart="108.00">
        <route edges="274886548#1 -221688408#8 5680831#13"/>
    </vehicle>
    <vehicle id="116" depart="116.00">
        <route edges="274886548#1 -221688408#8 5680831#13"/>
    </vehicle>
    <vehicle id="117" depart="117.00">
        <route edges="-274886548#0"/>
    </vehicle>
    <vehicle id="121" depart="121.00">
        <route edges="274886545#0 gneE2"/>
    </vehicle>
    <vehicle id="125" depart="125.00">
        <route edges="-274886548#0 274894285 gneE0"/>
    </vehicle>
    <vehicle id="130" depart="130.00">
        <route edges="276074127 274886548#1 -221688408#8 5680831#13 gneE1"/>
    </vehicle>
    <vehicle id="131" depart="131.00">
        <route edges="-274886548#1 -274886548#0"/>
    </vehicle>
    <vehicle id="132" depart="132.00">
        <route edges="276074127 274886548#1 -221688408#8 5680831#13"/>
    </vehicle>
    <vehicle id="133" depart="133.00">
        <route edges="274886548#1 274886545#0 gneE2"/>
    </vehicle>
    <vehicle id="134" depart="134.00">
        <route edges="274886548#1 -221688408#8"/>
    </vehicle>
    <vehicle id="135" depart="135.00">
        <route edges="276074127 274886548#1 274886545#0"/>
    </vehicle>
    <vehicle id="136" depart="136.00">
        <route edges="274886548#1 274886545#0 gneE2"/>
    </vehicle>
    <vehicle id="137" depart="137.00">
        <route edges="-274886545#0 -274886548#1 -274886548#0"/>
    </vehicle>
    <vehicle id="143" depart="143.00">
        <route edges="276074127 -274886548#0"/>
    </vehicle>
    <vehicle id="149" depart="149.00">
        <route edges="-221688408#8 5680831#13 gneE1"/>
    </vehicle>
    <vehicle id="151" depart="151.00">
        <route edges="276074127"/>
    </vehicle>
    <vehicle id="152" depart="152.00">
        <route edges="-274886545#0 -274886548#1 -274886548#0"/>
    </vehicle>
    <vehicle id="154" depart="154.00">
        <route edges="276074127 274886548#1 -221688408#8 5680831#13 gneE1"/>
    </vehicle>
    <vehicle id="156" depart="156.00">
        <route edges="-274886548#0"/>
    </vehicle>
    <vehicle id="157" depart="157.00">
        <route edges="276074127 274886548#1 -221688408#8 5680831#13 gneE1"/>
    </vehicle>
    <vehicle id="160" depart="160.00">
        <route edges="276074127 274886548#1 274886545#0 gneE2"/>
    </vehicle>
    <vehicle id="161" depart="161.00">
        <route edges="276074127 274886548#1 -221688408#8 5680831#13 gneE1"/>
    </vehicle>
    <vehicle id="164" depart="164.00">
        <route edges="276074127 274886548#1 -221688408#8 5680831#13 gneE1"/>
    </vehicle>
    <vehicle id="166" depart="166.00">
        <route edges="276074127 -274886548#0"/>
    </vehicle>
    <vehicle id="167" depart="167.00">
        <route edges="276074127 274886548#1 -221688408#8 5680831#13 gneE1"/>
    </vehicle>
    <vehicle id="168" depart="168.00">
        <route edges="-274886548#0 274894285 gneE0"/>
    </vehicle>
    <vehicle id="169" depart="169.00">
        <route edges="274886545#0"/>
    </vehicle>
    <vehicle id="174" depart="174.00">
        <route edges="274886548#1"/>
    </vehicle>
    <vehicle id="188" depart="188.00">
        <route edges="274886548#1 274886545#0"/>
    </vehicle>
    <vehicle id="194" depart="194.00">
        <route edges="5680831#13"/>
    </vehicle>
    <vehicle id="200" depart="200.00">
        <route edges="-274886548#1"/>
    </vehicle>
    <vehicle id="202" depart="202.00">
        <route edges="276074127 -274886548#0"/>
    </vehicle>
    <vehicle id="204" depart="204.00">
        <route edges="274886548#1 274886545#0"/>
    </vehicle>
    <vehicle id="205" depart="205.00">
        <route edges="276074127 -274886548#0 274894285 gneE0"/>
    </vehicle>
    <vehicle id="208" depart="208.00">
        <route edges="-274886548#0 274894285"/>
    </vehicle>
    <vehicle id="209" depart="209.00">
        <route edges="276074127 274886548#1 -221688408#8"/>
    </vehicle>
    <vehicle id="213" depart="213.00">
        <route edges="274886548#1 -221688408#8"/>
    </vehicle>
    <vehicle id="214" depart="214.00">
        <route edges="274894285 gneE0"/>
    </vehicle>
    <vehicle id="221" depart="221.00">
        <route edges="274886548#1 274886545#0 gneE2"/>
    </vehicle>
    <vehicle id="223" depart="223.00">
        <route edges="274894285"/>
    </vehicle>
    <vehicle id="224" depart="224.00">
        <route edges="276074127"/>
    </vehicle>
    <vehicle id="228" depart="228.00">
        <route edges="274894285"/>
    </vehicle>
    <vehicle id="229" depart="229.00">
        <route edges="274886548#1 274886545#0"/>
    </vehicle>
    <vehicle id="235" depart="235.00">
        <route edges="-274886548#1 -274886548#0 274894285"/>
    </vehicle>
    <vehicle id="236" depart="236.00">
        <route edges="-274886548#1"/>
    </vehicle>
    <vehicle id="238" depart="238.00">
        <route edges="274886548#1 -221688408#8 5680831#13"/>
    </vehicle>
    <vehicle id="239" depart="239.00">
        <route edges="276074127 -274886548#0 274894285 gneE0"/>
    </vehicle>
    <vehicle id="241" depart="241.00">
        <route edges="-274886548#1 -274886548#0 274894285 gneE0"/>
    </vehicle>
    <vehicle id="242" depart="242.00">
        <route edges="276074127 274886548#1 274886545#0 gneE2"/>
    </vehicle>
    <vehicle id="243" depart="243.00">
        <route edges="-274886548#1 -274886548#0 274894285 gneE0"/>
    </vehicle>
    <vehicle id="245" depart="245.00">
        <route edges="-274886545#0 -274886548#1"/>
    </vehicle>
    <vehicle id="248" depart="248.00">
        <route edges="-274886548#1 -274886548#0"/>
    </vehicle>
    <vehicle id="250" depart="250.00">
        <route edges="274886548#1 -221688408#8"/>
    </vehicle>
    <vehicle id="252" depart="252.00">
        <route edges="-221688408#8 5680831#13"/>
    </vehicle>
    <vehicle id="253" depart="253.00">
        <route edges="-274886545#0 -274886548#1 -274886548#0 274894285"/>
    </vehicle>
    <vehicle id="267" depart="267.00">
        <route edges="274894285 gneE0"/>
    </vehicle>
    <vehicle id="270" depart="270.00">
        <route edges="276074127 274886548#1 274886545#0 gneE2"/>
    </vehicle>
    <vehicle id="271" depart="271.00">
        <route edges="-221688408#8"/>
    </vehicle>
    <vehicle id="277" depart="277.00">
        <route edges="276074127"/>
    </vehicle>
    <vehicle id="279" depart="279.00">
        <route edges="276074127 274886548#1 274886545#0"/>
    </vehicle>
    <vehicle id="281" depart="281.00">
        <route edges="274886545#0"/>
    </vehicle>
    <vehicle id="282" depart="282.00">
        <route edges="276074127 274886548#1 -221688408#8 5680831#13 gneE1"/>
    </vehicle>
    <vehicle id="284" depart="284.00">
        <route edges="274886548#1 -221688408#8 5680831#13 gneE1"/>
    </vehicle>
    <vehicle id="287" depart="287.00">
        <route edges="-274886548#0 274894285 gneE0"/>
    </vehicle>
    <vehicle id="289" depart="289.00">
        <route edges="-274886548#1 -274886548#0 274894285 gneE0"/>
    </vehicle>
    <vehicle id="291" depart="291.00">
        <route edges="276074127 274886548#1 -221688408#8"/>
    </vehicle>
    <vehicle id="296" depart="296.00">
        <route edges="-274886545#0 -274886548#1 -274886548#0 274894285 gneE0"/>
    </vehicle>
    <vehicle id="300" depart="300.00">
        <route edges="-221688408#8 5680831#13"/>
    </vehicle>
    <vehicle id="310" depart="310.00">
        <route edges="-274886548#0"/>
    </vehicle>
    <vehicle id="311" depart="311.00">
        <route edges="-274886545#0 -274886548#1 -274886548#0"/>
    </vehicle>
    <vehicle id="313" depart="313.00">
        <route edges="-274886545#0 -274886548#1"/>
    </vehicle>
    <vehicle id="316" depart="316.00">
        <route edges="-274886548#0"/>
    </vehicle>
    <vehicle id="317" depart="317.00">
        <route edges="-274886545#0 -274886548#1"/>
    </vehicle>
    <vehicle id="319" depart="319.00">
        <route edges="274886545#0"/>
    </vehicle>
    <vehicle id="322" depart="322.00">
        <route edges="276074127 -274886548#0 274894285"/>
    </vehicle>
    <vehicle id="323" depart="323.00">
        <route edges="276074127"/>
    </vehicle>
    <vehicle id="327" depart="327.00">
        <route edges="276074127 274886548#1"/>
    </vehicle>
    <vehicle id="330" depart="330.00">
        <route edges="274886548#1 274886545#0"/>
    </vehicle>
    <vehicle id="339" depart="339.00">
        <route edges="-274886545#0 -274886548#1"/>
    </vehicle>
    <vehicle id="343" depart="343.00">
        <route edges="274886548#1 274886545#0"/>
    </vehicle>
    <vehicle id="347" depart="347.00">
        <route edges="276074127"/>
    </vehicle>
    <vehicle id="348" depart="348.00">
        <route edges="274886548#1 274886545#0 gneE2"/>
    </vehicle>
    <vehicle id="349" depart="349.00">
        <route edges="-274886548#1 -274886548#0 274894285"/>
    </vehicle>
    <vehicle id="350" depart="350.00">
        <route edges="274886548#1 -221688408#8 5680831#13 gneE1"/>
    </vehicle>
    <vehicle id="351" depart="351.00">
        <route edges="276074127 274886548#1 -221688408#8"/>
    </vehicle>
    <vehicle id="354" depart="354.00">
        <route edges="-274886548#0"/>
    </vehicle>
    <vehicle id="361" depart="361.00">
        <route edges="276074127"/>
    </vehicle>
    <vehicle id="373" depart="373.00">
        <route edges="276074127"/>
    </vehicle>
    <vehicle id="374" depart="374.00">
        <route edges="274886545#0"/>
    </vehicle>
    <vehicle id="376" depart="376.00">
        <route edges="-274886548#1 -274886548#0 274894285"/>
    </vehicle>
    <vehicle id="377" depart="377.00">
        <route edges="5680831#13"/>
    </vehicle>
    <vehicle id="382" depart="382.00">
        <route edges="274886545#0 gneE2"/>
    </vehicle>
    <vehicle id="390" depart="390.00">
        <route edges="276074127 -274886548#0 274894285"/>
    </vehicle>
    <vehicle id="391" depart="391.00">
        <route edges="274894285"/>
    </vehicle>
    <vehicle id="396" depart="396.00">
        <route edges="276074127 274886548#1 -221688408#8 5680831#13 gneE1"/>
    </vehicle>
    <vehicle id="397" depart="397.00">
        <route edges="-274886548#0 274894285 gneE0"/>
    </vehicle>
    <vehicle id="401" depart="401.00">
        <route edges="274886548#1 274886545#0 gneE2"/>
    </vehicle>
    <vehicle id="403" depart="403.00">
        <route edges="274886545#0"/>
    </vehicle>
    <vehicle id="405" depart="405.00">
        <route edges="274886545#0"/>
    </vehicle>
    <vehicle id="410" depart="410.00">
        <route edges="276074127 274886548#1"/>
    </vehicle>
    <vehicle id="411" depart="411.00">
        <route edges="274886548#1 -221688408#8 5680831#13 gneE1"/>
    </vehicle>
    <vehicle id="414" depart="414.00">
        <route edges="274886548#1 -221688408#8 5680831#13 gneE1"/>
    </vehicle>
    <vehicle id="415" depart="415.00">
        <route edges="276074127 274886548#1"/>
    </vehicle>
    <vehicle id="419" depart="419.00">
        <route edges="274886545#0 gneE2"/>
    </vehicle>
    <vehicle id="421" depart="421.00">
        <route edges="274886548#1 -221688408#8 5680831#13 gneE1"/>
    </vehicle>
    <vehicle id="422" depart="422.00">
        <route edges="276074127 274886548#1 -221688408#8 5680831#13 gneE1"/>
    </vehicle>
    <vehicle id="424" depart="424.00">
        <route edges="274894285 gneE0"/>
    </vehicle>
    <vehicle id="425" depart="425.00">
        <route edges="276074127 274886548#1 -221688408#8"/>
    </vehicle>
    <vehicle id="430" depart="430.00">
        <route edges="276074127 274886548#1"/>
    </vehicle>
    <vehicle id="434" depart="434.00">
        <route edges="-274886545#0 -274886548#1 -274886548#0 274894285"/>
    </vehicle>
    <vehicle id="437" depart="437.00">
        <route edges="276074127"/>
    </vehicle>
    <vehicle id="439" depart="439.00">
        <route edges="-274886545#0 -274886548#1 -274886548#0 274894285"/>
    </vehicle>
    <vehicle id="442" depart="442.00">
        <route edges="5680831#13"/>
    </vehicle>
    <vehicle id="445" depart="445.00">
        <route edges="274886548#1"/>
    </vehicle>
    <vehicle id="451" depart="451.00">
        <route edges="5680831#13"/>
    </vehicle>
    <vehicle id="453" depart="453.00">
        <route edges="274894285 gneE0"/>
    </vehicle>
    <vehicle id="456" depart="456.00">
        <route edges="-274886548#0 274894285 gneE0"/>
    </vehicle>
    <vehicle id="457" depart="457.00">
        <route edges="274886548#1 274886545#0"/>
    </vehicle>
    <vehicle id="460" depart="460.00">
        <route edges="274886548#1 -221688408#8 5680831#13 gneE1"/>
    </vehicle>
    <vehicle id="461" depart="461.00">
        <route edges="274886548#1 -221688408#8 5680831#13 gneE1"/>
    </vehicle>
    <vehicle id="462" depart="462.00">
        <route edges="274886548#1 274886545#0"/>
    </vehicle>
    <vehicle id="465" depart="465.00">
        <route edges="-274886548#0 274894285 gneE0"/>
    </vehicle>
    <vehicle id="466" depart="466.00">
        <route edges="-274886545#0 -274886548#1 -274886548#0"/>
    </vehicle>
    <vehicle id="467" depart="467.00">
        <route edges="274886545#0 gneE2"/>
    </vehicle>
    <vehicle id="468" depart="468.00">
        <route edges="274886545#0 gneE2"/>
    </vehicle>
    <vehicle id="470" depart="470.00">
        <route edges="276074127 -274886548#0 274894285"/>
    </vehicle>
    <vehicle id="471" depart="471.00">
        <route edges="276074127 -274886548#0 274894285 gneE0"/>
    </vehicle>
    <vehicle id="472" depart="472.00">
        <route edges="-274886548#1 -274886548#0"/>
    </vehicle>
    <vehicle id="474" depart="474.00">
        <route edges="5680831#13 gneE1"/>
    </vehicle>
    <vehicle id="477" depart="477.00">
        <route edges="-274886548#1 -274886548#0 274894285 gneE0"/>
    </vehicle>
    <vehicle id="481" depart="481.00">
        <route edges="276074127 274886548#1 274886545#0 gneE2"/>
    </vehicle>
    <vehicle id="483" depart="483.00">
        <route edges="-221688408#8 5680831#13 gneE1"/>
    </vehicle>
    <vehicle id="484" depart="484.00">
        <route edges="274886548#1 274886545#0 gneE2"/>
    </vehicle>
    <vehicle id="486" depart="486.00">
        <route edges="276074127 274886548#1 274886545#0 gneE2"/>
    </vehicle>
    <vehicle id="489" depart="489.00">
        <route edges="-274886548#0 274894285"/>
    </vehicle>
    <vehicle id="490" depart="490.00">
        <route edges="-221688408#8 5680831#13 gneE1"/>
    </vehicle>
    <vehicle id="492" depart="492.00">
        <route edges="274894285 gneE0"/>
    </vehicle>
    <vehicle id="495" depart="495.00">
        <route edges="-274886548#1 -274886548#0"/>
    </vehicle>
    <vehicle id="499" depart="499.00">
        <route edges="5680831#13 gneE1"/>
    </vehicle>
    <vehicle id="500" depart="500.00">
        <route edges="-221688408#8 5680831#13"/>
    </vehicle>
    <vehicle id="501" depart="501.00">
        <route edges="274886545#0 gneE2"/>
    </vehicle>
    <vehicle id="503" depart="503.00">
        <route edges="-274886545#0 -274886548#1 -274886548#0"/>
    </vehicle>
    <vehicle id="504" depart="504.00">
        <route edges="276074127 -274886548#0 274894285"/>
    </vehicle>
    <vehicle id="505" depart="505.00">
        <route edges="274886548#1 -221688408#8 5680831#13"/>
    </vehicle>
    <vehicle id="506" depart="506.00">
        <route edges="274886548#1 -221688408#8"/>
    </vehicle>
    <vehicle id="510" depart="510.00">
        <route edges="-274886545#0 -274886548#1"/>
    </vehicle>
    <vehicle id="511" depart="511.00">
        <route edges="276074127 274886548#1 274886545#0"/>
    </vehicle>
    <vehicle id="513" depart="513.00">
        <route edges="-221688408#8 5680831#13 gneE1"/>
    </vehicle>
    <vehicle id="514" depart="514.00">
        <route edges="-274886545#0 -274886548#1 -274886548#0"/>
    </vehicle>
    <vehicle id="515" depart="515.00">
        <route edges="-274886548#0"/>
    </vehicle>
    <vehicle id="516" depart="516.00">
        <route edges="274886548#1 -221688408#8"/>
    </vehicle>
    <vehicle id="520" depart="520.00">
        <route edges="274894285"/>
    </vehicle>
    <vehicle id="521" depart="521.00">
        <route edges="274894285"/>
    </vehicle>
    <vehicle id="522" depart="522.00">
        <route edges="276074127 -274886548#0 274894285"/>
    </vehicle>
    <vehicle id="525" depart="525.00">
        <route edges="276074127 274886548#1 -221688408#8 5680831#13 gneE1"/>
    </vehicle>
    <vehicle id="529" depart="529.00">
        <route edges="274894285"/>
    </vehicle>
    <vehicle id="542" depart="542.00">
        <route edges="-274886548#1 -274886548#0"/>
    </vehicle>
    <vehicle id="544" depart="544.00">
        <route edges="-274886548#1 -274886548#0"/>
    </vehicle>
    <vehicle id="546" depart="546.00">
        <route edges="276074127 -274886548#0"/>
    </vehicle>
    <vehicle id="548" depart="548.00">
        <route edges="276074127"/>
    </vehicle>
    <vehicle id="550" depart="550.00">
        <route edges="-274886548#0"/>
    </vehicle>
    <vehicle id="554" depart="554.00">
        <route edges="274886548#1 274886545#0"/>
    </vehicle>
    <vehicle id="557" depart="557.00">
        <route edges="-221688408#8 5680831#13 gneE1"/>
    </vehicle>
    <vehicle id="558" depart="558.00">
        <route edges="-274886548#1 -274886548#0 274894285 gneE0"/>
    </vehicle>
    <vehicle id="560" depart="560.00">
        <route edges="276074127 274886548#1 274886545#0 gneE2"/>
    </vehicle>
    <vehicle id="561" depart="561.00">
        <route edges="276074127"/>
    </vehicle>
    <vehicle id="562" depart="562.00">
        <route edges="274886548#1 -221688408#8"/>
    </vehicle>
    <vehicle id="563" depart="563.00">
        <route edges="5680831#13 gneE1"/>
    </vehicle>
    <vehicle id="564" depart="564.00">
        <route edges="-274886548#0"/>
    </vehicle>
    <vehicle id="567" depart="567.00">
        <route edges="276074127"/>
    </vehicle>
    <vehicle id="568" depart="568.00">
        <route edges="-274886548#1 -274886548#0"/>
    </vehicle>
    <vehicle id="569" depart="569.00">
        <route edges="274886548#1 -221688408#8"/>
    </vehicle>
    <vehicle id="574" depart="574.00">
        <route edges="-221688408#8"/>
    </vehicle>
    <vehicle id="581" depart="581.00">
        <route edges="274894285"/>
    </vehicle>
    <vehicle id="585" depart="585.00">
        <route edges="-274886545#0 -274886548#1 -274886548#0"/>
    </vehicle>
    <vehicle id="589" depart="589.00">
        <route edges="274894285"/>
    </vehicle>
    <vehicle id="590" depart="590.00">
        <route edges="276074127 -274886548#0 274894285 gneE0"/>
    </vehicle>
    <vehicle id="591" depart="591.00">
        <route edges="-221688408#8 5680831#13 gneE1"/>
    </vehicle>
    <vehicle id="592" depart="592.00">
        <route edges="-221688408#8"/>
    </vehicle>
    <vehicle id="593" depart="593.00">
        <route edges="5680831#13 gneE1"/>
    </vehicle>
    <vehicle id="597" depart="597.00">
        <route edges="-274886548#0 274894285 gneE0"/>
    </vehicle>
    <vehicle id="598" depart="598.00">
        <route edges="274886548#1 -221688408#8 5680831#13 gneE1"/>
    </vehicle>
    <vehicle id="604" depart="604.00">
        <route edges="-274886545#0 -274886548#1 -274886548#0 274894285"/>
    </vehicle>
    <vehicle id="605" depart="605.00">
        <route edges="-274886545#0 -274886548#1 -274886548#0 274894285"/>
    </vehicle>
    <vehicle id="609" depart="609.00">
        <route edges="-274886545#0 -274886548#1"/>
    </vehicle>
    <vehicle id="612" depart="612.00">
        <route edges="274894285"/>
    </vehicle>
    <vehicle id="613" depart="613.00">
        <route edges="274894285 gneE0"/>
    </vehicle>
    <vehicle id="614" depart="614.00">
        <route edges="274886545#0 gneE2"/>
    </vehicle>
    <vehicle id="616" depart="616.00">
        <route edges="274886548#1 -221688408#8 5680831#13 gneE1"/>
    </vehicle>
    <vehicle id="622" depart="622.00">
        <route edges="-221688408#8 5680831#13 gneE1"/>
    </vehicle>
    <vehicle id="623" depart="623.00">
        <route edges="-221688408#8 5680831#13 gneE1"/>
    </vehicle>
    <vehicle id="624" depart="624.00">
        <route edges="276074127"/>
    </vehicle>
    <vehicle id="628" depart="628.00">
        <route edges="276074127 274886548#1 -221688408#8 5680831#13"/>
    </vehicle>
    <vehicle id="629" depart="629.00">
        <route edges="-274886548#0 274894285"/>
    </vehicle>
    <vehicle id="631" depart="631.00">
        <route edges="-221688408#8 5680831#13 gneE1"/>
    </vehicle>
    <vehicle id="635" depart="635.00">
        <route edges="-274886548#1 -274886548#0 274894285"/>
    </vehicle>
    <vehicle id="639" depart="639.00">
        <route edges="276074127 274886548#1 -221688408#8 5680831#13"/>
    </vehicle>
    <vehicle id="643" depart="643.00">
        <route edges="5680831#13 gneE1"/>
    </vehicle>
    <vehicle id="646" depart="646.00">
        <route edges="5680831#13"/>
    </vehicle>
    <vehicle id="649" depart="649.00">
        <route edges="-274886548#1 -274886548#0 274894285 gneE0"/>
    </vehicle>
    <vehicle id="650" depart="650.00">
        <route edges="276074127 274886548#1 -221688408#8 5680831#13"/>
    </vehicle>
    <vehicle id="651" depart="651.00">
        <route edges="276074127 -274886548#0 274894285 gneE0"/>
    </vehicle>
    <vehicle id="652" depart="652.00">
        <route edges="274894285"/>
    </vehicle>
    <vehicle id="653" depart="653.00">
        <route edges="274886548#1"/>
    </vehicle>
    <vehicle id="655" depart="655.00">
        <route edges="-274886545#0 -274886548#1"/>
    </vehicle>
    <vehicle id="657" depart="657.00">
        <route edges="-274886548#0"/>
    </vehicle>
    <vehicle id="658" depart="658.00">
        <route edges="-221688408#8 5680831#13 gneE1"/>
    </vehicle>
    <vehicle id="660" depart="660.00">
        <route edges="276074127 274886548#1 -221688408#8 5680831#13 gneE1"/>
    </vehicle>
    <vehicle id="663" depart="663.00">
        <route edges="-274886548#1 -274886548#0"/>
    </vehicle>
    <vehicle id="664" depart="664.00">
        <route edges="276074127 -274886548#0 274894285 gneE0"/>
    </vehicle>
    <vehicle id="665" depart="665.00">
        <route edges="276074127 -274886548#0"/>
    </vehicle>
    <vehicle id="670" depart="670.00">
        <route edges="274886545#0"/>
    </vehicle>
    <vehicle id="671" depart="671.00">
        <route edges="276074127 -274886548#0 274894285"/>
    </vehicle>
    <vehicle id="672" depart="672.00">
        <route edges="276074127 274886548#1"/>
    </vehicle>
    <vehicle id="674" depart="674.00">
        <route edges="274886545#0"/>
    </vehicle>
    <vehicle id="675" depart="675.00">
        <route edges="-274886548#1 -274886548#0 274894285"/>
    </vehicle>
    <vehicle id="677" depart="677.00">
        <route edges="276074127 -274886548#0"/>
    </vehicle>
    <vehicle id="679" depart="679.00">
        <route edges="276074127"/>
    </vehicle>
    <vehicle id="680" depart="680.00">
        <route edges="-221688408#8 5680831#13 gneE1"/>
    </vehicle>
    <vehicle id="681" depart="681.00">
        <route edges="276074127 274886548#1 274886545#0"/>
    </vehicle>
    <vehicle id="690" depart="690.00">
        <route edges="5680831#13 gneE1"/>
    </vehicle>
    <vehicle id="693" depart="693.00">
        <route edges="276074127 274886548#1 -221688408#8 5680831#13"/>
    </vehicle>
    <vehicle id="697" depart="697.00">
        <route edges="276074127"/>
    </vehicle>
    <vehicle id="698" depart="698.00">
        <route edges="274894285"/>
    </vehicle>
    <vehicle id="701" depart="701.00">
        <route edges="-274886548#1 -274886548#0 274894285 gneE0"/>
    </vehicle>
    <vehicle id="705" depart="705.00">
        <route edges="-274886548#0"/>
    </vehicle>
    <vehicle id="708" depart="708.00">
        <route edges="274886548#1 -221688408#8"/>
    </vehicle>
    <vehicle id="712" depart="712.00">
        <route edges="-274886548#1 -274886548#0 274894285"/>
    </vehicle>
    <vehicle id="713" depart="713.00">
        <route edges="274886548#1 274886545#0 gneE2"/>
    </vehicle>
    <vehicle id="715" depart="715.00">
        <route edges="276074127 274886548#1 274886545#0"/>
    </vehicle>
    <vehicle id="717" depart="717.00">
        <route edges="274894285 gneE0"/>
    </vehicle>
    <vehicle id="720" depart="720.00">
        <route edges="-274886545#0 -274886548#1 -274886548#0 274894285 gneE0"/>
    </vehicle>
    <vehicle id="724" depart="724.00">
        <route edges="274886545#0"/>
    </vehicle>
    <vehicle id="727" depart="727.00">
        <route edges="274886545#0 gneE2"/>
    </vehicle>
    <vehicle id="730" depart="730.00">